data_image0
_cell_length_a       7.67932
_cell_length_b       3.83966
_cell_length_c       22.4541
_cell_angle_alpha    90
_cell_angle_beta     90
_cell_angle_gamma    90

_symmetry_space_group_name_H-M    "P 1"
_symmetry_int_tables_number       1

loop_
  _symmetry_equiv_pos_as_xyz
  'x, y, z'

loop_
  _atom_site_label
  _atom_site_occupancy
  _atom_site_fract_x
  _atom_site_fract_y
  _atom_site_fract_z
  _atom_site_thermal_displace_type
  _atom_site_B_iso_or_equiv
  _atom_site_type_symbol
  Si1      1.0000 0.15880  0.00000  0.18994  Biso   1.000  Si
  Si2      1.0000 0.84120  0.00000  0.22214  Biso   1.000  Si
  Si3      1.0000 0.23445  0.50000  0.15163  Biso   1.000  Si
  Si4      1.0000 0.76555  0.50000  0.15163  Biso   1.000  Si
  Si5      1.0000 0.50000  0.50000  0.09601  Biso   1.000  Si
  Si6      1.0000 0.00000  0.50000  0.08464  Biso   1.000  Si
  Si7      1.0000 0.50000  0.00000  0.03313  Biso   1.000  Si
  Si8      1.0000 0.00000  0.00000  0.02660  Biso   1.000  Si
  Si9      1.0000 0.25000  0.00000  0.96977  Biso   1.000  Si
  Si10     1.0000 0.75000  0.00000  0.96977  Biso   1.000  Si
  Si11     1.0000 0.25000  0.50000  0.90932  Biso   1.000  Si
  Si12     1.0000 0.75000  0.50000  0.90932  Biso   1.000  Si
  Si13     1.0000 0.00000  0.50000  0.84886  Biso   1.000  Si
  Si14     1.0000 0.50000  0.50000  0.84886  Biso   1.000  Si
  Si15     1.0000 0.00000  0.00000  0.78840  Biso   1.000  Si
  Si16     1.0000 0.50000  0.00000  0.78840  Biso   1.000  Si
  Si17     1.0000 0.25000  0.00000  0.72795  Biso   1.000  Si
  Si18     1.0000 0.75000  0.00000  0.72795  Biso   1.000  Si
  Si19     1.0000 0.25000  0.50000  0.66749  Biso   1.000  Si
  Si20     1.0000 0.75000  0.50000  0.66749  Biso   1.000  Si
