data_image0
_cell_length_a       7.67932
_cell_length_b       3.83966
_cell_length_c       19.7391
_cell_angle_alpha    90
_cell_angle_beta     90
_cell_angle_gamma    90

_symmetry_space_group_name_H-M    "P 1"
_symmetry_int_tables_number       1

loop_
  _symmetry_equiv_pos_as_xyz
  'x, y, z'

loop_
  _atom_site_label
  _atom_site_occupancy
  _atom_site_fract_x
  _atom_site_fract_y
  _atom_site_fract_z
  _atom_site_thermal_displace_type
  _atom_site_B_iso_or_equiv
  _atom_site_type_symbol
  Si1      1.0000 0.15880  0.00000  0.21607  Biso   1.000  Si
  Si2      1.0000 0.84120  0.00000  0.25269  Biso   1.000  Si
  Si3      1.0000 0.23445  0.50000  0.17248  Biso   1.000  Si
  Si4      1.0000 0.76555  0.50000  0.17248  Biso   1.000  Si
  Si5      1.0000 0.50000  0.50000  0.10921  Biso   1.000  Si
  Si6      1.0000 0.00000  0.50000  0.09628  Biso   1.000  Si
  Si7      1.0000 0.50000  0.00000  0.03769  Biso   1.000  Si
  Si8      1.0000 0.00000  0.00000  0.03026  Biso   1.000  Si
  Si9      1.0000 0.25000  0.00000  0.96561  Biso   1.000  Si
  Si10     1.0000 0.75000  0.00000  0.96561  Biso   1.000  Si
  Si11     1.0000 0.25000  0.50000  0.89684  Biso   1.000  Si
  Si12     1.0000 0.75000  0.50000  0.89684  Biso   1.000  Si
  Si13     1.0000 0.00000  0.50000  0.82807  Biso   1.000  Si
  Si14     1.0000 0.50000  0.50000  0.82807  Biso   1.000  Si
  Si15     1.0000 0.00000  0.00000  0.75930  Biso   1.000  Si
  Si16     1.0000 0.50000  0.00000  0.75930  Biso   1.000  Si
