data_image0
_cell_length_a       7.67932
_cell_length_b       3.83966
_cell_length_c       17.0241
_cell_angle_alpha    90
_cell_angle_beta     90
_cell_angle_gamma    90

_symmetry_space_group_name_H-M    "P 1"
_symmetry_int_tables_number       1

loop_
  _symmetry_equiv_pos_as_xyz
  'x, y, z'

loop_
  _atom_site_label
  _atom_site_occupancy
  _atom_site_fract_x
  _atom_site_fract_y
  _atom_site_fract_z
  _atom_site_thermal_displace_type
  _atom_site_B_iso_or_equiv
  _atom_site_type_symbol
  Si1      1.0000 0.15880  0.00000  0.25052  Biso   1.000  Si
  Si2      1.0000 0.84120  0.00000  0.29299  Biso   1.000  Si
  Si3      1.0000 0.23445  0.50000  0.19999  Biso   1.000  Si
  Si4      1.0000 0.76555  0.50000  0.19999  Biso   1.000  Si
  Si5      1.0000 0.50000  0.50000  0.12663  Biso   1.000  Si
  Si6      1.0000 0.00000  0.50000  0.11163  Biso   1.000  Si
  Si7      1.0000 0.50000  0.00000  0.04370  Biso   1.000  Si
  Si8      1.0000 0.00000  0.00000  0.03508  Biso   1.000  Si
  Si9      1.0000 0.25000  0.00000  0.96013  Biso   1.000  Si
  Si10     1.0000 0.75000  0.00000  0.96013  Biso   1.000  Si
  H1       1.0000 0.25000  0.68522  0.90996  Biso   1.000  H
  H2       1.0000 0.25000  0.31478  0.90996  Biso   1.000  H
  H3       1.0000 0.75000  0.68522  0.90996  Biso   1.000  H
  H4       1.0000 0.75000  0.31478  0.90996  Biso   1.000  H
